Version 4
SHEET 1 880 680
WIRE 304 0 -80 0
WIRE 144 80 96 80
WIRE 304 96 304 80
WIRE 416 96 304 96
WIRE 624 96 496 96
WIRE 304 112 304 96
WIRE 624 112 624 96
WIRE 96 128 96 80
WIRE 496 128 496 96
WIRE 624 128 624 112
WIRE -80 144 -80 0
WIRE 224 160 224 80
WIRE 240 160 224 160
WIRE 624 208 624 192
FLAG 96 208 0
FLAG 304 208 0
FLAG -80 224 0
FLAG 496 192 0
FLAG 624 208 0
SYMBOL voltage 96 112 R0
WINDOW 123 0 0 Left 0
WINDOW 39 0 0 Left 0
SYMATTR InstName V1
SYMATTR Value PULSE(0 3.3 0 0 0 0.005 0.01)
SYMBOL npn 240 112 R0
SYMATTR InstName Q1
SYMATTR Value BC547B
SYMBOL voltage -80 128 R0
WINDOW 123 0 0 Left 0
WINDOW 39 0 0 Left 0
SYMATTR InstName V2
SYMATTR Value 3.3
SYMBOL res 240 64 R90
WINDOW 0 0 56 VBottom 2
WINDOW 3 32 56 VTop 2
SYMATTR InstName R1
SYMATTR Value 1k
SYMBOL res 288 -16 R0
SYMATTR InstName R2
SYMATTR Value 1k
SYMBOL res 512 80 R90
WINDOW 0 0 56 VBottom 2
WINDOW 3 32 56 VTop 2
SYMATTR InstName R3
SYMATTR Value 3.3k
SYMBOL cap 480 128 R0
SYMATTR InstName C1
SYMATTR Value 10µ
SYMBOL res 608 96 R0
SYMATTR InstName R4
SYMATTR Value 100K
TEXT -114 248 Left 2 !.tran 0 5 0 startup
